<?xml version="1.0" encoding="UTF-8"?>

<!-- generated on Mon Feb 10 17:51:25 2020 by Eclipse SUMO polyconvert Version v1_4_0+0332-4894b5eff8
<configuration xmlns:xsi="http://www.w3.org/2001/XMLSchema-instance" xsi:noNamespaceSchemaLocation="http://sumo.dlr.de/xsd/polyconvertConfiguration.xsd">

    <input>
        <net-file value="osm.net.xml"/>
        <osm-files value="osm_bbox.osm.xml"/>
        <osm.keep-full-type value="true"/>
        <type-file value="/home/aadhi/sumo/data/typemap/osmPolyconvert.typ.xml"/>
    </input>

    <output>
        <output-file value="osm.poly.xml"/>
    </output>

    <processing>
        <poi-layer-offset value="5"/>
    </processing>

    <report>
        <verbose value="true"/>
    </report>

</configuration>
-->

<additional xmlns:xsi="http://www.w3.org/2001/XMLSchema-instance" xsi:noNamespaceSchemaLocation="http://sumo.dlr.de/xsd/additional_file.xsd">
    <location netOffset="-711422.61,-1214284.45" convBoundary="-14682.70,-922.50,12339.66,8515.97" origBoundary="76.800978,10.970135,77.048063,11.056199" projParameter="+proj=utm +zone=43 +ellps=WGS84 +datum=WGS84 +units=m +no_defs"/>

    <poly id="128964734" type="building.train_station" color="255,230,230" fill="1" layer="-1.00" shape="3594.800565,1911.974845 3602.645660,1899.148216 3607.394382,1891.766719 3620.230625,1899.617501 3609.956074,1916.200895 3605.437871,1913.427508 3603.228412,1916.975510 3594.800565,1911.974845"/>
    <poly id="130435487" type="waterway.stream" color="181,209,209" fill="0" layer="-4.00" shape="1469.247065,1567.360294 1453.855350,1589.398472 1451.301269,1620.835369 1423.489253,1646.665207 1419.401957,1666.752096 1414.983161,1717.726057 1404.119083,1736.065217 1382.528881,1753.162087 1358.100495,1778.095629 1333.089328,1835.596262 1330.429595,1864.797644 1326.145368,1896.721169 1312.031617,1947.599064 1297.896447,2001.784797 1275.480220,2036.732783 1268.846330,2053.417738 1229.986451,2045.100551 1213.074026,2047.159366 1199.409479,2059.118913 1189.339792,2081.412911 1184.918604,2104.130740 1157.604877,2134.123791 1134.172246,2174.143375 1132.046218,2195.227619 1130.055001,2222.497213 1120.984818,2245.749151 1113.568415,2271.877243 1109.309636,2283.034806 1108.341376,2297.510602 1112.214388,2327.329600 1083.212831,2393.478185 1078.304831,2427.234190 1079.308273,2452.874729 1106.931874,2461.041555 1130.751325,2477.680490 1150.529516,2502.270008 1162.754365,2533.636736 1186.573736,2550.275726 1176.353186,2605.969335"/>
    <poly id="133585584" type="amenity.school" color="237,199,199" fill="1" layer="-1.00" shape="3262.396934,2448.429057 3276.006755,2449.956420 3303.586880,2453.046716 3322.166613,2455.126629 3403.028189,2464.197321 3414.611405,2351.258510 3405.029326,2343.926960 3346.962899,2339.165490 3262.396934,2448.429057"/>
    <poly id="133585586" type="amenity.public_building" color="237,199,199" fill="1" layer="-1.00" shape="3527.303593,2448.781325 3436.871856,2432.223950 3444.214516,2392.620102 3534.646366,2409.177478 3527.303593,2448.781325"/>
    <poly id="133585586#1" type="building.yes" color="255,230,230" fill="1" layer="-1.00" shape="3527.303593,2448.781325 3436.871856,2432.223950 3444.214516,2392.620102 3534.646366,2409.177478 3527.303593,2448.781325"/>
    <poly id="133585587" type="amenity.public_building" color="237,199,199" fill="1" layer="-1.00" shape="3599.589557,2480.421390 3645.060761,2492.258915 3650.486231,2471.682979 3605.014999,2459.845451 3599.589557,2480.421390"/>
    <poly id="133585587#1" type="building.yes" color="255,230,230" fill="1" layer="-1.00" shape="3599.589557,2480.421390 3645.060761,2492.258915 3650.486231,2471.682979 3605.014999,2459.845451 3599.589557,2480.421390"/>
    <poly id="134096009" type="shop.greengrocer" color="237,199,255" fill="1" layer="-1.00" shape="2809.749576,1184.709922 2797.954833,1239.983926 2769.970248,1231.713867 2732.406502,1220.615457 2745.090276,1164.771944 2809.749576,1184.709922"/>
    <poly id="134949385" type="amenity.parking" color="184,184,179" fill="1" layer="-1.00" shape="2354.721814,1675.575519 2352.749195,1716.619436 2312.029460,1713.521928 2314.175525,1674.371011 2354.721814,1675.575519"/>
    <poly id="24711461" type="natural.water" color="181,209,209" fill="1" layer="-4.00" shape="2853.382312,1130.163680 2826.817284,1143.886141 2798.556632,1149.432650 2711.091695,1123.249941 2636.885988,1100.461935 2545.813140,1069.310789 2453.647330,1019.654579 2422.227910,996.614806 2360.801615,956.861846 2268.641452,907.936494 2130.921455,843.569193 2082.026929,818.170292 1860.303278,753.169752 1663.426042,721.843348 1655.024569,662.145604 1651.282183,607.135820 1626.494574,584.505101 1564.313362,527.755553 1461.544016,501.322534 1468.779109,430.707041 1395.494103,403.856893 1328.797138,389.363224 1328.339556,218.628941 1318.543691,200.255488 1295.183765,196.785210 1197.998611,195.791080 1122.542762,179.968949 1118.035165,168.732520 1134.974779,130.507252 1138.981732,65.358403 1212.142015,72.768511 1246.427501,50.144352 1292.045624,36.488594 1405.584661,49.327164 1512.960395,53.408188 1607.972113,89.604127 1681.493688,66.593078 1685.406258,36.393023 1712.585290,20.726385 1762.362999,14.687766 1811.793481,-1.852285 1847.028165,-0.517291 1917.318136,29.788254 2032.111915,31.241763 2092.960311,5.494001 2277.767534,4.128522 2323.917614,-2.120941 2537.555589,-47.728578 2619.197028,-13.110198 2685.347357,28.355387 2766.747650,79.800279 2834.795629,160.454635 2848.091925,206.853365 2857.270440,254.397990 2872.018485,351.388782 2883.582508,485.676205 2888.856367,518.436611 2893.101229,707.219657 2885.380264,752.972404 2877.330191,788.854309 2884.398191,824.735296 2888.218487,849.055801 2886.146083,876.833936 2873.712063,944.616658 2867.688905,996.542883 2859.587353,1047.017282 2853.824524,1099.254984 2853.382312,1130.163680"/>
    <poly id="293066643" type="landuse.industrial" color="209,209,204" fill="1" layer="-3.00" shape="2876.562557,2531.792042 2997.882730,2566.992815 2990.182532,2589.478971 3100.184073,2622.105804 2957.333829,2893.999336 2864.396415,3043.568636 2846.164833,3038.448720 2801.129249,2991.842263 2679.734402,2966.642934 2742.801357,2664.200921 2712.059667,2646.475462 2730.998397,2543.353995 2809.042308,2551.995482 2821.264472,2513.275405 2876.562557,2531.792042"/>
    <poly id="29895003" type="natural.water" color="181,209,209" fill="1" layer="-4.00" shape="3601.261770,1541.485886 3630.965982,1554.182387 3711.882205,1600.294784 3812.871278,1460.858334 3915.454012,1368.552483 3964.813634,1334.457383 3700.958795,1290.563735 3608.015102,1264.818273 3534.652357,1231.910396 3504.274765,1250.220903 3476.496679,1253.833865 3442.268321,1239.205017 3419.605421,1232.894272 3419.971580,1218.702078 3386.193141,1205.470256 3353.565401,1210.169017 3334.647729,1234.573234 3345.230502,1277.812592 3366.558308,1337.806159 3403.678956,1399.872434 3452.684975,1458.089008 3519.586271,1497.769646 3601.261770,1541.485886"/>
    <poly id="29895006" type="natural.water" color="181,209,209" fill="1" layer="-4.00" shape="1511.348019,1687.793885 1432.393127,1679.437656 1341.615086,1667.066372 1259.299293,1568.410910 1169.308910,1434.391478 1082.984305,1343.554694 1079.317806,1300.361367 1074.618573,1263.036051 1171.245901,1287.215776 1267.896824,1309.426667 1376.258306,1351.340377 1504.103859,1434.592338 1549.314946,1468.253121 1542.664809,1580.061771 1534.163511,1672.242855 1511.348019,1687.793885"/>
    <poly id="29983268" type="leisure.park" color="207,245,201" fill="1" layer="-2.00" shape="1695.820799,2549.012196 1633.128398,2549.755417 1625.620449,2541.121366 1625.680505,2521.782769 1482.755954,2514.227501 1493.174721,2497.113553 1505.443596,2481.250729 1543.856567,2438.795098 1578.721278,2415.898828 1615.401361,2399.608221 1656.758864,2408.705566 1692.927492,2420.667885 1710.768540,2437.168867 1695.820799,2549.012196"/>
    <poly id="329852733" type="landuse.garages" color="194,194,130" fill="1" layer="-3.00" shape="3163.555904,1080.113252 3236.885264,1094.809296 3314.740624,1119.459154 3334.398006,1127.365432 3320.393992,1164.292594 3276.270850,1181.705752 3266.754736,1192.640723 3242.774446,1185.513856 3243.395993,1172.374384 3192.781099,1151.122242 3147.452087,1147.329867 3163.555904,1080.113252"/>
    <poly id="329852734" type="landuse.garages" color="194,194,130" fill="1" layer="-3.00" shape="2994.694269,1067.669899 2998.182940,1062.404297 3109.627726,1069.040234 3163.555904,1080.113252 3147.452087,1147.329867 3114.540384,1143.629760 3101.916689,1134.973003 3016.904971,1129.848380 2989.691311,1137.426205 2994.694269,1067.669899"/>
    <poly id="373410449" type="amenity.school" color="237,199,199" fill="1" layer="-1.00" shape="3138.635523,1954.172237 3129.318308,2018.302204 3181.118913,2025.179591 3178.415100,2070.887700 3176.769270,2098.569086 3230.962514,2093.922907 3234.925263,2138.147873 3292.078406,2153.900310 3397.383143,1965.866900 3138.635523,1954.172237"/>
    <poly id="374742905" type="landuse.commercial" color="209,209,204" fill="1" layer="-3.00" shape="3120.703820,2098.667040 3176.769270,2098.569086 3178.415100,2070.887700 3115.730861,2068.486258 3120.703820,2098.667040"/>
    <poly id="374784185" type="amenity.school" color="237,199,199" fill="1" layer="-1.00" shape="2965.263964,1928.344995 3080.096920,1951.311219 3096.043890,1964.890923 3101.530128,1995.152494 3042.001994,1991.510610 3042.685529,2012.358856 3033.956700,2024.969589 2971.927767,2017.627307 2956.258386,2011.749727 2956.445332,1983.140554 2959.560117,1953.112249 2965.263964,1928.344995"/>
    <poly id="374784187" type="amenity.place_of_worship" color="237,199,199" fill="1" layer="-1.00" shape="3067.633695,1893.079576 3007.857823,1890.520399 2991.892339,1861.363121 2992.543191,1803.582339 3013.828103,1793.211037 3021.468774,1809.955903 3049.506510,1794.959928 3063.813786,1810.232672 3068.822808,1844.949727 3067.633695,1893.079576"/>
    <poly id="377992179" type="amenity.college" color="237,199,199" fill="1" layer="-1.00" shape="3035.540071,1710.807609 3091.081239,1717.432619 3101.811617,1600.981169 3061.078415,1591.543230 3035.540071,1710.807609"/>
    <poly id="377993519" type="amenity.hospital" color="237,199,199" fill="1" layer="-1.00" shape="3768.323631,1866.401873 3810.278133,1857.903605 3812.118758,1843.931261 3959.390959,1852.586873 3965.772264,1876.271742 3947.429671,2017.854321 3934.991875,2177.442997 3850.863051,2169.743675 3835.305167,2163.556583 3747.420341,2161.873626 3746.099726,2093.237330 3760.825921,2086.242142 3752.727599,1992.679309 3770.585000,1988.271415 3768.323631,1866.401873"/>
    <poly id="405604613" type="building.train_station" color="255,230,230" fill="1" layer="-1.00" shape="3465.133720,1887.393914 3463.511639,1889.717710 3459.958595,1894.794760 3465.794553,1898.318016 3459.138505,1908.187410 3451.172325,1916.145285 3457.584183,1921.862904 3467.025564,1912.310470 3473.974782,1902.741715 3476.314346,1904.361261 3480.912038,1896.668981 3465.133720,1887.393914"/>
    <poly id="405604614" type="building.yes" color="255,230,230" fill="1" layer="-1.00" shape="3495.659148,1859.779952 3475.664966,1891.689184 3484.929775,1897.414431 3504.923965,1865.505204 3495.659148,1859.779952"/>
    <poly id="405604615" type="building.train_station" color="255,230,230" fill="1" layer="-1.00" shape="3603.228412,1916.975510 3594.800565,1911.974845 3542.792462,1998.461236 3554.334388,2005.318855 3606.342517,1918.832479 3603.228412,1916.975510"/>
    <poly id="405629514" type="building.yes" color="255,230,230" fill="1" layer="-1.00" shape="3061.835413,1733.283635 3056.991353,1733.528563 3057.254084,1738.486762 3062.087285,1738.230700 3061.835413,1733.283635"/>
    <poly id="405629514#1" type="historic.yes" color="128,255,128" fill="1" layer="-1.00" shape="3061.835413,1733.283635 3056.991353,1733.528563 3057.254084,1738.486762 3062.087285,1738.230700 3061.835413,1733.283635"/>
    <poly id="405629514#2" type="man_made.tower" color="255,230,230" fill="1" layer="-1.00" shape="3061.835413,1733.283635 3056.991353,1733.528563 3057.254084,1738.486762 3062.087285,1738.230700 3061.835413,1733.283635"/>
    <poly id="405629514#3" type="tourism.attraction" color="207,245,201" fill="1" layer="-2.00" shape="3061.835413,1733.283635 3056.991353,1733.528563 3057.254084,1738.486762 3062.087285,1738.230700 3061.835413,1733.283635"/>
    <poly id="405629548" type="landuse.grass" color="194,194,130" fill="1" layer="-3.00" shape="3776.242410,2487.178322 3778.881932,2486.387999 3781.634719,2486.660527 3784.074703,2487.959919 3785.820628,2490.084529 3786.623200,2492.711875 3786.342938,2495.442751 3785.037181,2497.868179 3782.905217,2499.602241 3780.254765,2500.392493 3777.501979,2500.119965 3775.072926,2498.820644 3773.316071,2496.695963 3772.524429,2494.068690 3772.793759,2491.337742 3774.099443,2488.923376 3776.242410,2487.178322"/>
    <poly id="415419917" type="amenity.bus_station" color="237,199,199" fill="1" layer="-1.00" shape="3798.059915,1820.826711 3796.163511,1796.640261 3786.149196,1781.859965 3748.900893,1782.788435 3730.380422,1789.946854 3714.146065,1806.878379 3798.059915,1820.826711"/>
    <poly id="415421211" type="leisure.pitch" color="207,245,201" fill="1" layer="-2.00" shape="3045.604372,2241.371856 3027.450235,2239.383415 3023.709744,2273.147124 3041.863862,2275.135565 3045.604372,2241.371856"/>
    <poly id="415421212" type="leisure.pitch" color="207,245,201" fill="1" layer="-2.00" shape="3063.968272,2258.087303 3061.413868,2290.995810 3098.010700,2297.640961 3101.198658,2259.791172 3063.968272,2258.087303"/>
    <poly id="415421213" type="leisure.pitch" color="207,245,201" fill="1" layer="-2.00" shape="3023.709744,2273.147124 3020.178659,2304.976075 3038.343690,2306.964589 3041.863862,2275.135565 3023.709744,2273.147124"/>
    <poly id="415421214" type="leisure.playground" color="207,245,201" fill="1" layer="-2.00" shape="3227.005168,2030.491591 3276.513107,2036.933719 3286.009716,2018.929026 3351.642065,2025.189145 3295.817399,2133.766918 3239.344734,2115.916852 3237.458913,2091.730571 3223.675574,2091.640382 3227.005168,2030.491591"/>
    <poly id="415421215" type="building.yes" color="255,230,230" fill="1" layer="-1.00" shape="3243.529199,1995.959615 3241.425037,2021.845707 3251.967909,2022.689145 3257.400907,1955.823174 3246.858014,1954.979738 3244.503970,1983.973064 3192.762004,1979.817612 3191.787253,1991.804161 3243.529199,1995.959615"/>
    <poly id="504083362" type="building.residential" color="255,230,230" fill="1" layer="-1.00" shape="3523.974903,1755.657777 3530.628155,1757.903017 3533.344359,1750.419686 3526.243023,1748.160447 3523.974903,1755.657777"/>
    <poly id="504083363" type="building.building" color="255,230,230" fill="1" layer="-1.00" shape="3526.243023,1748.160447 3533.344359,1750.419686 3538.819445,1730.607445 3530.148866,1729.278333 3526.243023,1748.160447"/>
    <poly id="525914802" type="landuse.commercial" color="209,209,204" fill="1" layer="-3.00" shape="3093.384846,2734.091172 3420.840091,2845.377705 3503.257307,2498.575914 3336.268823,2466.592353 3254.095542,2459.194908 3093.384846,2734.091172"/>
    <poly id="553610267" type="landuse.commercial" color="209,209,204" fill="1" layer="-3.00" shape="2808.050687,1669.426493 2723.142743,1651.978265 2745.406438,1565.318899 2754.223183,1561.006330 2799.335819,1567.706562 2808.673222,1664.485146 2808.050687,1669.426493"/>
    <poly id="553610269" type="building.yes" color="255,230,230" fill="1" layer="-1.00" shape="2891.115312,1520.533296 2811.622351,1525.844811 2812.789737,1542.934566 2892.271728,1537.622990 2891.115312,1520.533296"/>
    <poly id="553610270" type="building.yes" color="255,230,230" fill="1" layer="-1.00" shape="2843.131350,1640.525166 2845.135074,1626.620288 2832.248360,1624.788110 2830.244641,1638.692988 2843.131350,1640.525166"/>
    <poly id="553610271" type="building.yes" color="255,230,230" fill="1" layer="-1.00" shape="2865.735353,1635.727343 2869.909644,1610.828393 2855.266921,1608.398372 2851.092642,1633.297322 2865.735353,1635.727343"/>
    <poly id="553610273" type="building.yes" color="255,230,230" fill="1" layer="-1.00" shape="2864.504953,1645.034829 2850.614869,1642.853120 2847.559923,1662.061644 2861.449999,1664.243353 2864.504953,1645.034829"/>
    <poly id="553610274" type="amenity.cinema" color="237,199,199" fill="1" layer="-1.00" shape="2869.309656,1684.297598 2842.293846,1678.390268 2830.614719,1670.746539 2822.813204,1653.502833 2816.708355,1600.734052 2883.133313,1611.279840 2869.309656,1684.297598"/>
    <poly id="553610274#1" type="landuse.commercial" color="209,209,204" fill="1" layer="-3.00" shape="2869.309656,1684.297598 2842.293846,1678.390268 2830.614719,1670.746539 2822.813204,1653.502833 2816.708355,1600.734052 2883.133313,1611.279840 2869.309656,1684.297598"/>
    <poly id="553610283" type="amenity.place_of_worship" color="237,199,199" fill="1" layer="-1.00" shape="3059.832179,1546.395704 3069.513331,1500.146850 3012.991899,1489.576910 3005.535174,1535.010531 3059.832179,1546.395704"/>
    <poly id="553610285" type="building.yes" color="255,230,230" fill="1" layer="-1.00" shape="3033.123660,1505.153191 3027.962319,1532.203091 3044.164113,1535.262932 3049.325540,1508.201970 3033.123660,1505.153191"/>
    <poly id="553610287" type="building.yes" color="255,230,230" fill="1" layer="-1.00" shape="2990.660322,1588.184439 3027.252253,1595.703355 3030.660152,1579.373663 2994.057344,1571.843613 2990.660322,1588.184439"/>
    <poly id="553610288" type="building.yes" color="255,230,230" fill="1" layer="-1.00" shape="2987.299390,1652.541396 2993.688837,1618.208628 2984.888943,1616.591172 2978.499506,1650.923940 2987.299390,1652.541396"/>
    <poly id="553610289" type="building.yes" color="255,230,230" fill="1" layer="-1.00" shape="2994.957511,1648.221321 3018.290361,1652.334538 3024.371832,1618.298474 3001.039029,1614.174194 2994.957511,1648.221321"/>
    <poly id="553610291" type="building.yes" color="255,230,230" fill="1" layer="-1.00" shape="2975.153437,1672.852201 3017.319880,1680.407543 3019.054797,1670.848889 3005.996533,1668.506593 3008.593184,1654.207299 2996.015355,1651.945592 2993.429640,1666.244958 2976.888413,1663.282485 2975.153437,1672.852201"/>
    <poly id="553610292" type="building.yes" color="255,230,230" fill="1" layer="-1.00" shape="2956.838809,1693.709079 2966.424601,1695.497619 2976.751085,1640.800414 2967.165276,1639.011874 2956.838809,1693.709079"/>
    <poly id="553610294" type="landuse.commercial" color="209,209,204" fill="1" layer="-3.00" shape="2967.015120,1700.480083 3023.273915,1711.037229 3059.832179,1546.395704 3005.535174,1535.010531 2993.909493,1532.566974 2967.015120,1700.480083"/>
    <poly id="553610298" type="building.yes" color="255,230,230" fill="1" layer="-1.00" shape="2891.358012,1664.151005 2898.067748,1624.277483 2891.690913,1623.217991 2884.981185,1663.091513 2891.358012,1664.151005"/>
    <poly id="553610300" type="building.yes" color="255,230,230" fill="1" layer="-1.00" shape="2930.673107,1659.738957 2907.236902,1656.388513 2905.210711,1670.381754 2928.635903,1673.743189 2930.673107,1659.738957"/>
    <poly id="553610301" type="building.yes" color="255,230,230" fill="1" layer="-1.00" shape="2940.398077,1651.936283 2960.905677,1655.145919 2966.709088,1618.485973 2946.201465,1615.276338 2940.398077,1651.936283"/>
    <poly id="553610303" type="building.yes" color="255,230,230" fill="1" layer="-1.00" shape="2931.905406,1650.143830 2936.822882,1618.578402 2905.187286,1613.714020 2900.269914,1645.268384 2931.905406,1650.143830"/>
    <poly id="593559424" type="amenity.fuel" color="237,199,199" fill="1" layer="-1.00" shape="1561.515252,1478.167723 1574.969571,1483.499124 1584.198010,1462.881363 1562.305866,1447.294674 1556.409233,1453.086867 1561.515252,1478.167723"/>
    <poly id="594392961" type="leisure.park" color="207,245,201" fill="1" layer="-2.00" shape="1638.358852,2380.650703 1639.573132,2383.867005 1641.731515,2386.458821 1644.605756,2388.225525 1647.901889,2388.988193 1651.270719,2388.656048 1654.351331,2387.259935 1656.814739,2384.963670 1658.408037,2381.997941 1658.965184,2378.682513 1658.418300,2375.370975 1656.776517,2372.339974 1654.233849,2370.011184 1651.061828,2368.651894 1647.609435,2368.386068 1644.269800,2369.271578 1641.404415,2371.189074 1639.331552,2373.941481 1638.271900,2377.209392 1638.358852,2380.650703"/>
    <poly id="598058539" type="historic.monument" color="128,255,128" fill="1" layer="-1.00" shape="3590.437625,2410.826580 3590.145362,2413.723330 3590.815409,2416.560008 3592.373284,2419.026343 3594.667630,2420.866882 3597.437494,2421.869703 3600.388556,2421.911179 3603.192830,2421.000221 3605.543612,2419.234393 3607.188272,2416.800117 3607.950181,2413.961764 3607.728862,2411.039519 3606.566005,2408.343437 3604.601602,2406.195280 3602.042097,2404.784483 3599.148805,2404.267652 3596.260133,2404.713384 3593.660635,2406.068230 3591.646446,2408.179238 3590.437625,2410.826580"/>
    <poly id="598060354" type="landuse.grass" color="194,194,130" fill="1" layer="-3.00" shape="3598.730593,2401.366243 3602.302005,2401.821139 3606.128929,2403.317691 3606.519573,2383.748720 3598.730593,2401.366243"/>
    <poly id="598060355" type="landuse.grass" color="194,194,130" fill="1" layer="-3.00" shape="3605.999452,2423.065391 3608.980884,2420.142018 3610.404420,2416.422914 3623.135919,2428.543606 3605.999452,2423.065391"/>
    <poly id="598060356" type="landuse.grass" color="194,194,130" fill="1" layer="-3.00" shape="3587.829163,2416.883402 3587.153480,2413.239044 3588.140305,2409.439631 3571.888917,2414.012999 3587.829163,2416.883402"/>
    <poly id="621874765" type="building.yes" color="255,230,230" fill="1" layer="-1.00" shape="3707.925156,2185.456679 3711.217336,2208.490596 3718.471277,2207.465002 3715.179102,2184.431083 3707.925156,2185.456679"/>
    <poly id="621874766" type="building.yes" color="255,230,230" fill="1" layer="-1.00" shape="3720.015422,2208.692128 3735.186411,2208.869081 3735.262234,2202.308852 3720.091170,2202.142962 3720.015422,2208.692128"/>
    <poly id="621874767" type="building.yes" color="255,230,230" fill="1" layer="-1.00" shape="3739.582529,2175.253449 3737.765594,2207.281774 3747.719990,2207.844934 3749.547866,2175.816679 3739.582529,2175.253449"/>
    <poly id="621874768" type="building.yes" color="255,230,230" fill="1" layer="-1.00" shape="3715.244547,2221.118471 3745.144576,2222.188619 3745.465762,2213.218130 3715.565725,2212.147983 3715.244547,2221.118471"/>
    <poly id="66239966" type="landuse.railway" color="194,194,130" fill="1" layer="-3.00" shape="3170.162141,2592.149891 3269.717650,2412.144142 3399.660571,2227.358898 3538.510147,2023.082892 3583.126993,2033.620169 3634.632584,1928.753877 3635.154003,1870.883543 3624.684588,1812.122471 3603.500391,1802.081711 3578.779258,1828.018770 3532.317073,1865.518698 3484.524451,1835.798577 3440.507402,1908.895165 3418.135696,1946.663618 3284.378160,2179.694459 3195.971466,2346.353101 3121.917540,2452.886644 3053.638684,2537.209185 3062.328982,2553.872460 3145.441835,2578.003751 3170.162141,2592.149891"/>
    <poly id="66239978" type="amenity.parking" color="184,184,179" fill="1" layer="-1.00" shape="3592.669249,2015.350306 3562.212901,1999.064226 3605.348633,1918.704265 3632.962417,1931.741168 3592.669249,2015.350306"/>
    <poly id="738466617" type="building.yes" color="255,230,230" fill="1" layer="-1.00" shape="2189.590050,1597.818937 2199.556874,1598.171464 2199.945656,1587.143663 2189.989760,1586.791208 2189.590050,1597.818937"/>
    <poly id="738467953" type="building.yes" color="255,230,230" fill="1" layer="-1.00" shape="2709.317355,2107.186527 2717.374493,2108.699511 2722.570598,2081.306872 2714.513453,2079.793888 2709.317355,2107.186527"/>
    <poly id="740518718" type="building.yes" color="255,230,230" fill="1" layer="-1.00" shape="3189.692267,1785.675883 3203.697166,1785.336004 3203.159488,1763.924451 3189.154580,1764.264332 3189.692267,1785.675883"/>
    <poly id="740654792" type="building.yes" color="255,230,230" fill="1" layer="-1.00" shape="2395.004067,1749.178129 2411.129988,1750.444881 2412.582611,1732.177385 2396.467612,1730.910706 2395.004067,1749.178129"/>
    <poly id="740998347" type="building.yes" color="255,230,230" fill="1" layer="-1.00" shape="1965.273452,1375.985650 1963.408544,1392.137310 1975.008759,1393.462900 1976.873674,1377.311240 1965.273452,1375.985650"/>
    <poly id="89913234" type="amenity.bus_station" color="237,199,199" fill="1" layer="-1.00" shape="2899.312814,1197.541854 2895.805238,1190.637420 2896.231540,1162.173659 2897.685491,1065.034021 2901.772601,1065.215590 2905.455633,1065.339204 2982.220697,1067.820777 2987.894510,1067.747193 2994.694269,1067.669899 2989.691311,1137.426205 2986.912122,1176.329683 2966.609580,1178.498318 2899.312814,1197.541854"/>
    <poly id="90591315" type="amenity.townhall" color="237,199,199" fill="1" layer="-1.00" shape="2869.309656,1684.297598 2883.133313,1611.279840 2897.726438,1534.262095 2993.909493,1532.566974 2967.015120,1700.480083 2869.309656,1684.297598"/>
    <poly id="90591315#1" type="landuse.commercial" color="209,209,204" fill="1" layer="-3.00" shape="2869.309656,1684.297598 2883.133313,1611.279840 2897.726438,1534.262095 2993.909493,1532.566974 2967.015120,1700.480083 2869.309656,1684.297598"/>
    <poly id="90591317" type="amenity.post_office" color="237,199,199" fill="1" layer="-1.00" shape="3133.812108,2395.798919 3168.567084,2351.473245 3149.692023,2337.719416 3137.099763,2329.350413 3127.272195,2341.157350 3103.300533,2371.281571 3133.812108,2395.798919"/>
    <poi id="1051328308" type="amenity.police" color="237,199,199" layer="4.00" x="2909.94" y="1178.68"/>
    <poi id="1298297993" type="amenity.nightclub" color="237,199,199" layer="4.00" x="2329.52" y="2427.76"/>
    <poi id="1468093970" type="shop.alcohol" color="237,199,255" layer="4.00" x="1548.84" y="2415.78"/>
    <poi id="1474413414" type="amenity.hospital" color="237,199,199" layer="4.00" x="3445.18" y="1776.91"/>
    <poi id="1474413446" type="shop.supermarket" color="237,199,255" layer="4.00" x="3477.46" y="1779.70"/>
    <poi id="1474427075" type="amenity.parking" color="184,184,179" layer="4.00" x="3471.25" y="1874.66"/>
    <poi id="1474427078" type="amenity.atm" color="237,199,199" layer="4.00" x="3469.60" y="1808.25"/>
    <poi id="1474451333" type="shop.clothes" color="237,199,255" layer="4.00" x="3670.39" y="1928.31"/>
    <poi id="1474451334" type="amenity.restaurant" color="237,199,199" layer="4.00" x="3617.50" y="2123.72"/>
    <poi id="1474451335" type="amenity.fast_food" color="237,199,199" layer="4.00" x="3703.42" y="1853.95"/>
    <poi id="1474451339" type="building.yes" color="255,230,230" layer="4.00" x="3553.84" y="2223.51"/>
    <poi id="1474451352" type="amenity.fast_food" color="237,199,199" layer="4.00" x="3620.96" y="2361.44"/>
    <poi id="1474451355" type="tourism.guest_house" color="207,245,201" layer="3.00" x="3511.01" y="2228.48"/>
    <poi id="1474451361" type="amenity.post_office" color="237,199,199" layer="4.00" x="3621.04" y="1856.31"/>
    <poi id="1474451365" type="amenity.restaurant" color="237,199,199" layer="4.00" x="3632.08" y="2275.26"/>
    <poi id="1474490978" type="amenity.restaurant" color="237,199,199" layer="4.00" x="3112.07" y="1752.63"/>
    <poi id="1474490982" type="shop.hifi" color="237,199,255" layer="4.00" x="2722.15" y="1890.65"/>
    <poi id="1474490983" type="amenity.restaurant" color="237,199,199" layer="4.00" x="3110.53" y="1711.72"/>
    <poi id="1474490989" type="shop.books" color="237,199,255" layer="4.00" x="3098.75" y="1711.48"/>
    <poi id="1474490993" type="shop.bakery" color="237,199,255" layer="4.00" x="3107.46" y="1716.31"/>
    <poi id="1474490995" type="amenity.school" color="237,199,199" layer="4.00" x="3269.57" y="1794.81"/>
    <poi id="1474490997" type="amenity.place_of_worship" color="237,199,199" layer="4.00" x="2738.98" y="1874.65"/>
    <poi id="1474490998" type="amenity.parking" color="184,184,179" layer="4.00" x="3148.70" y="1810.60"/>
    <poi id="1474491002" type="shop.jewelry" color="237,199,255" layer="4.00" x="2660.97" y="1741.69"/>
    <poi id="1474491003" type="shop.books" color="237,199,255" layer="4.00" x="2914.21" y="1844.71"/>
    <poi id="1474491004" type="shop.convenience" color="237,199,255" layer="4.00" x="2676.48" y="1881.32"/>
    <poi id="1474491006" type="shop.books" color="237,199,255" layer="4.00" x="3153.90" y="1748.40"/>
    <poi id="1474491011" type="amenity.bank" color="237,199,199" layer="4.00" x="2659.17" y="1792.94"/>
    <poi id="1474491012" type="shop.clothes" color="237,199,255" layer="4.00" x="2662.59" y="1762.96"/>
    <poi id="1474491013" type="shop.hifi" color="237,199,255" layer="4.00" x="2701.45" y="1784.19"/>
    <poi id="1474491017" type="amenity.library" color="237,199,199" layer="4.00" x="2774.85" y="1902.94"/>
    <poi id="1474491018" type="shop.books" color="237,199,255" layer="4.00" x="3604.61" y="2436.78"/>
    <poi id="1474491020" type="amenity.toilets" color="237,199,199" layer="4.00" x="3031.19" y="1755.62"/>
    <poi id="1474491022" type="shop.clothes" color="237,199,255" layer="4.00" x="2681.01" y="1860.09"/>
    <poi id="1474491024" type="amenity.school" color="237,199,199" layer="4.00" x="2749.36" y="1901.02"/>
    <poi id="1474491025" type="shop.clothes" color="237,199,255" layer="4.00" x="2665.43" y="1777.84"/>
    <poi id="1474491027" type="shop.clothes" color="237,199,255" layer="4.00" x="2714.73" y="1770.00"/>
    <poi id="1474491029" type="amenity.school" color="237,199,199" layer="4.00" x="3376.29" y="1799.56"/>
    <poi id="1474518432" type="shop.greengrocer" color="237,199,255" layer="4.00" x="2068.39" y="1567.70"/>
    <poi id="1474518434" type="shop.clothes" color="237,199,255" layer="4.00" x="2659.58" y="1640.01"/>
    <poi id="1474518442" type="amenity.place_of_worship" color="237,199,199" layer="4.00" x="2571.65" y="1636.82"/>