<?xml version="1.0" encoding="UTF-8"?>

<!-- generated on Mon Feb 10 17:45:43 2020 by Eclipse SUMO netconvert Version v1_4_0+0332-4894b5eff8
<configuration xmlns:xsi="http://www.w3.org/2001/XMLSchema-instance" xsi:noNamespaceSchemaLocation="http://sumo.dlr.de/xsd/netconvertConfiguration.xsd">

    <input>
        <type-files value="/home/aadhi/sumo/data/typemap/osmNetconvert.typ.xml"/>
        <osm-files value="osm_bbox.osm.xml"/>
    </input>

    <output>
        <output-file value="osm.net.xml"/>
        <output.street-names value="true"/>
        <output.original-names value="true"/>
    </output>

    <projection>
        <proj.utm value="true"/>
    </projection>

    <processing>
        <geometry.remove value="true"/>
        <roundabouts.guess value="true"/>
        <lefthand value="true"/>
    </processing>

    <tls_building>
        <tls.discard-simple value="true"/>
        <tls.join value="true"/>
        <tls.guess-signals value="true"/>
        <tls.default-type value="actuated"/>
    </tls_building>

    <ramp_guessing>
        <ramps.guess value="true"/>
    </ramp_guessing>

    <junctions>
        <junctions.join value="true"/>
        <junctions.corner-detail value="5"/>
    </junctions>

    <report>
        <verbose value="true"/>
        <aggregate-warnings value="5"/>
    </report>

</configuration>
-->

<net version="1.3" junctionCornerDetail="5" lefthand="true" limitTurnSpeed="5.50" xmlns:xsi="http://www.w3.org/2001/XMLSchema-instance" xsi:noNamespaceSchemaLocation="http://sumo.dlr.de/xsd/net_file.xsd">

    <location netOffset="-711422.61,-1214284.45" convBoundary="0.00,-0.00,4492.25,4520.86" origBoundary="76.934905,10.978358,76.976002,11.019361" projParameter="+proj=utm +zone=43 +ellps=WGS84 +datum=WGS84 +units=m +no_defs"/>

    <type id="highway.bridleway" priority="1" numLanes="1" speed="2.78" allow="pedestrian" oneway="1" width="2.00"/>
    <type id="highway.bus_guideway" priority="1" numLanes="1" speed="27.78" allow="bus" oneway="1"/>
    <type id="highway.cycleway" priority="1" numLanes="1" speed="8.33" allow="bicycle" oneway="0" width="1.00"/>
    <type id="highway.footway" priority="1" numLanes="1" speed="2.78" allow="pedestrian" oneway="1" width="2.00"/>
    <type id="highway.ford" priority="1" numLanes="1" speed="2.78" allow="army" oneway="0"/>
    <type id="highway.living_street" priority="2" numLanes="1" speed="2.78" disallow="tram rail_urban rail rail_electric rail_fast ship" oneway="0"/>
    <type id="highway.motorway" priority="14" numLanes="2" speed="39.44" allow="private emergency authority army vip passenger hov taxi bus coach delivery truck trailer motorcycle evehicle custom1 custom2" oneway="1"/>
    <type id="highway.motorway_link" priority="9" numLanes="1" speed="22.22" allow="private emergency authority army vip passenger hov taxi bus coach delivery truck trailer motorcycle evehicle custom1 custom2" oneway="1"/>
    <type id="highway.path" priority="1" numLanes="1" speed="2.78" allow="pedestrian bicycle" oneway="1" width="2.00"/>
    <type id="highway.pedestrian" priority="1" numLanes="1" speed="2.78" allow="pedestrian" oneway="1" width="2.00"/>
    <type id="highway.primary" priority="12" numLanes="2" speed="27.78" disallow="tram rail_urban rail rail_electric rail_fast ship" oneway="0"/>
    <type id="highway.primary_link" priority="7" numLanes="1" speed="22.22" disallow="tram rail_urban rail rail_electric rail_fast ship" oneway="0"/>
    <type id="highway.raceway" priority="15" numLanes="2" speed="83.33" allow="vip" oneway="0"/>
    <type id="highway.residential" priority="3" numLanes="1" speed="13.89" disallow="tram rail_urban rail rail_electric rail_fast ship" oneway="0"/>
    <type id="highway.secondary" priority="11" numLanes="1" speed="27.78" disallow="tram rail_urban rail rail_electric rail_fast ship" oneway="0"/>
    <type id="highway.secondary_link" priority="6" numLanes="1" speed="22.22" disallow="tram rail_urban rail rail_electric rail_fast ship" oneway="0"/>
    <type id="highway.service" priority="1" numLanes="1" speed="5.56" allow="pedestrian delivery bicycle" oneway="0"/>
    <type id="highway.stairs" priority="1" numLanes="1" speed="1.39" allow="pedestrian" oneway="1" width="2.00"/>
    <type id="highway.step" priority="1" numLanes="1" speed="1.39" allow="pedestrian" oneway="1" width="2.00"/>
    <type id="highway.steps" priority="1" numLanes="1" speed="1.39" allow="pedestrian" oneway="1" width="2.00"/>
    <type id="highway.tertiary" priority="10" numLanes="1" speed="22.22" disallow="tram rail_urban rail rail_electric rail_fast ship" oneway="0"/>
    <type id="highway.tertiary_link" priority="5" numLanes="1" speed="22.22" disallow="tram rail_urban rail rail_electric rail_fast ship" oneway="0"/>
    <type id="highway.track" priority="1" numLanes="1" speed="5.56" disallow="tram rail_urban rail rail_electric rail_fast ship" oneway="0"/>
    <type id="highway.trunk" priority="13" numLanes="2" speed="27.78" disallow="pedestrian bicycle tram rail_urban rail rail_electric rail_fast ship" oneway="0"/>
    <type id="highway.trunk_link" priority="8" numLanes="1" speed="22.22" disallow="pedestrian bicycle tram rail_urban rail rail_electric rail_fast ship" oneway="0"/>
    <type id="highway.unclassified" priority="4" numLanes="1" speed="13.89" disallow="tram rail_urban rail rail_electric rail_fast ship" oneway="0"/>
    <type id="highway.unsurfaced" priority="1" numLanes="1" speed="8.33" disallow="tram rail_urban rail rail_electric rail_fast ship" oneway="0"/>
    <type id="railway.highspeed" priority="21" numLanes="1" speed="69.44" allow="rail_fast" oneway="1"/>
    <type id="railway.light_rail" priority="19" numLanes="1" speed="27.78" allow="rail_urban" oneway="1"/>
    <type id="railway.preserved" priority="16" numLanes="1" speed="27.78" allow="rail" oneway="1"/>
    <type id="railway.rail" priority="20" numLanes="1" speed="44.44" allow="rail" oneway="1"/>
    <type id="railway.subway" priority="18" numLanes="1" speed="27.78" allow="rail_urban" oneway="1"/>
    <type id="railway.tram" priority="17" numLanes="1" speed="13.89" allow="tram" oneway="1"/>

    <edge id=":1067569703_0" function="internal">
        <lane id=":1067569703_0_0" index="0" allow="rail rail_electric rail_fast" speed="44.44" length="47.02" shape="3795.09,1520.86 3770.27,1560.80"/>
    </edge>
    <edge id=":1067569703_1" function="internal">
        <lane id=":1067569703_1_0" index="0" allow="rail rail_electric rail_fast" speed="44.44" length="47.03" shape="3797.91,1522.75 3792.63,1529.74 3783.91,1541.64 3775.27,1553.61 3770.27,1560.80"/>
    </edge>
    <edge id=":1097913915_0" function="internal">
        <lane id=":1097913915_0_0" index="0" disallow="tram rail_urban rail rail_electric rail_fast ship" speed="12.81" length="23.43" shape="3369.43,1147.71 3367.74,1152.24 3364.38,1156.21 3359.33,1159.62 3352.61,1162.48"/>
    </edge>
    <edge id=":1097913915_1" function="internal">
        <lane id=":1097913915_1_0" index="0" disallow="tram rail_urban rail rail_electric rail_fast ship" speed="7.44" length="16.37" shape="3369.43,1147.71 3368.93,1153.54 3369.83,1157.34 3372.13,1159.10 3375.83,1158.84"/>
    </edge>
    <edge id=":1097913915_2" function="internal">
        <lane id=":1097913915_2_0" index="0" disallow="tram rail_urban rail rail_electric rail_fast ship" speed="3.92" length="5.09" shape="3369.43,1147.71 3368.92,1149.20 3369.11,1150.15 3369.98,1150.58 3371.55,1150.48"/>
    </edge>
    <edge id=":1097913915_3" function="internal">
        <lane id=":1097913915_3_0" index="0" disallow="tram rail_urban rail rail_electric rail_fast ship" speed="5.57" length="10.20" shape="3374.94,1155.76 3371.88,1156.26 3370.30,1155.55 3370.18,1153.62 3371.55,1150.48"/>
    </edge>
    <edge id=":1097913915_4" function="internal">
        <lane id=":1097913915_4_0" index="0" disallow="tram rail_urban rail rail_electric rail_fast ship" speed="22.22" length="23.32" shape="3374.94,1155.76 3352.61,1162.48"/>
    </edge>
    <edge id=":1097913915_5" function="internal">
        <lane id=":1097913915_5_0" index="0" disallow="tram rail_urban rail rail_electric rail_fast ship" speed="3.65" length="2.34" shape="3374.94,1155.76 3374.01,1156.87 3373.85,1157.75"/>
    </edge>
    <edge id=":1097913915_9" function="internal">
        <lane id=":1097913915_9_0" index="0" disallow="tram rail_urban rail rail_electric rail_fast ship" speed="3.65" length="2.34" shape="3373.85,1157.75 3374.46,1158.40 3375.83,1158.84"/>
    </edge>
    <edge id=":1097913915_6" function="internal">
        <lane id=":1097913915_6_0" index="0" disallow="tram rail_urban rail rail_electric rail_fast ship" speed="22.22" length="23.18" shape="3353.64,1165.51 3375.83,1158.84"/>
    </edge>
    <edge id=":1097913915_7" function="internal">
        <lane id=":1097913915_7_0" index="0" disallow="tram rail_urban rail rail_electric rail_fast ship" speed="16.75" length="6.68" shape="3353.64,1165.51 3358.09,1163.09 3359.38,1162.11"/>
    </edge>
    <edge id=":1097913915_8" function="internal">
        <lane id=":1097913915_8_0" index="0" disallow="tram rail_urban rail rail_electric rail_fast ship" speed="3.65" length="2.34" shape="3353.64,1165.51 3354.52,1164.36 3354.64,1163.47"/>
    </edge>
    <edge id=":1097913915_10" function="internal">
        <lane id=":1097913915_10_0" index="0" disallow="tram rail_urban rail rail_electric rail_fast ship" speed="16.75" length="16.92" shape="3359.38,1162.11 3363.45,1159.02 3368.38,1154.44 3371.55,1150.48"/>
    </edge>
    <edge id=":1097913915_11" function="internal">
        <lane id=":1097913915_11_0" index="0" disallow="tram rail_urban rail rail_electric rail_fast ship" speed="3.65" length="2.34" shape="3354.64,1163.47 3354.00,1162.85 3352.61,1162.48"/>
    </edge>
    <edge id=":1436626080_0" function="internal">
        <lane id=":1436626080_0_0" index="0" disallow="tram rail_urban rail rail_electric rail_fast ship" speed="13.89" length="12.21" shape="2194.11,2524.58 2190.79,2524.61 2188.03,2524.28 2185.33,2523.56 2182.22,2522.41"/>
    </edge>
    <edge id=":1436626080_1" function="internal">
        <lane id=":1436626080_1_0" index="0" disallow="tram rail_urban rail rail_electric rail_fast ship" speed="9.33" length="4.91" shape="2194.11,2524.58 2190.84,2525.22 2189.46,2526.00"/>
    </edge>
    <edge id=":1436626080_2" function="internal">
        <lane id=":1436626080_2_0" index="0" disallow="tram rail_urban rail rail_electric rail_fast ship" speed="3.65" length="2.34" shape="2194.11,2524.58 2192.95,2525.44 2192.59,2526.26"/>
    </edge>
    <edge id=":1436626080_9" function="internal">
        <lane id=":1436626080_9_0" index="0" disallow="tram rail_urban rail rail_electric rail_fast ship" speed="9.33" length="8.59" shape="2189.46,2526.00 2188.11,2526.76 2185.90,2529.20 2184.21,2532.55"/>
    </edge>
    <edge id=":1436626080_10" function="internal">
        <lane id=":1436626080_10_0" index="0" disallow="tram rail_urban rail rail_electric rail_fast ship" speed="3.65" length="2.34" shape="2192.59,2526.26 2193.04,2527.04 2194.28,2527.77"/>
    </edge>
    <edge id=":1436626080_3" function="internal">
        <lane id=":1436626080_3_0" index="0" disallow="tram rail_urban rail rail_electric rail_fast ship" speed="8.02" length="9.78" shape="2187.21,2533.67 2188.44,2531.19 2190.03,2529.38 2191.97,2528.24 2194.28,2527.77"/>
    </edge>
    <edge id=":1436626080_4" function="internal">
        <lane id=":1436626080_4_0" index="0" disallow="tram rail_urban rail rail_electric rail_fast ship" speed="8.01" length="13.99" shape="2187.21,2533.67 2188.03,2529.93 2187.47,2526.81 2185.53,2524.30 2182.22,2522.41"/>
    </edge>
    <edge id=":1436626080_5" function="internal">
        <lane id=":1436626080_5_0" index="0" disallow="tram rail_urban rail rail_electric rail_fast ship" speed="3.65" length="4.67" shape="2187.21,2533.67 2186.88,2532.26 2186.27,2531.61 2185.38,2531.70 2184.21,2532.55"/>
    </edge>
    <edge id=":1436626080_6" function="internal">
        <lane id=":1436626080_6_0" index="0" disallow="tram rail_urban rail rail_electric rail_fast ship" speed="6.51" length="8.90" shape="2181.04,2525.38 2183.15,2526.59 2184.38,2528.18 2184.74,2530.17 2184.21,2532.55"/>
    </edge>
    <edge id=":1436626080_7" function="internal">
        <lane id=":1436626080_7_0" index="0" disallow="tram rail_urban rail rail_electric rail_fast ship" speed="13.89" length="13.57" shape="2181.04,2525.38 2184.36,2526.57 2187.53,2527.37 2190.75,2527.77 2194.28,2527.77"/>
    </edge>
    <edge id=":1436626080_8" function="internal">
        <lane id=":1436626080_8_0" index="0" disallow="tram rail_urban rail rail_electric rail_fast ship" speed="3.65" length="2.34" shape="2181.04,2525.38 2182.45,2525.08 2183.11,2524.48"/>
    </edge>
    <edge id=":1436626080_11" function="internal">
        <lane id=":1436626080_11_0" index="0" disallow="tram rail_urban rail rail_electric rail_fast ship" speed="3.65" length="2.34" shape="2183.11,2524.48 2183.04,2523.59 2182.22,2522.41"/>
    </edge>
    <edge id=":1444969343_0" function="internal">
        <lane id=":1444969343_0_0" index="0" disallow="tram rail_urban rail rail_electric rail_fast ship" speed="6.67" length="9.31" shape="2083.43,1588.79 2082.82,1591.26 2081.57,1592.97 2079.68,1593.92 2077.15,1594.10"/>
    </edge>
    <edge id=":1444969343_1" function="internal">
        <lane id=":1444969343_1_0" index="0" disallow="tram rail_urban rail rail_electric rail_fast ship" speed="22.22" length="11.43" shape="2083.43,1588.79 2082.10,1600.15"/>
    </edge>
    <edge id=":1444969343_2" function="internal">
        <lane id=":1444969343_2_0" index="0" disallow="tram rail_urban rail rail_electric rail_fast ship" speed="3.65" length="4.67" shape="2083.43,1588.79 2084.10,1590.07 2084.86,1590.55 2085.69,1590.23 2086.61,1589.12"/>
    </edge>
    <edge id=":1444969343_3" function="internal">
        <lane id=":1444969343_3_0" index="0" disallow="tram rail_urban rail rail_electric rail_fast ship" speed="6.46" length="9.03" shape="2091.66,1595.17 2089.23,1594.63 2087.58,1593.44 2086.71,1591.60 2086.61,1589.12"/>
    </edge>
    <edge id=":1444969343_4" function="internal">
        <lane id=":1444969343_4_0" index="0" disallow="tram rail_urban rail rail_electric rail_fast ship" speed="27.78" length="14.54" shape="2091.66,1595.17 2077.15,1594.10"/>
    </edge>
    <edge id=":1444969343_5" function="internal">
        <lane id=":1444969343_5_0" index="0" disallow="tram rail_urban rail rail_electric rail_fast ship" speed="7.55" length="12.01" shape="2091.66,1595.17 2087.75,1595.22 2084.86,1596.07 2082.97,1597.71 2082.10,1600.15"/>
    </edge>
    <edge id=":1444969343_6" function="internal">
        <lane id=":1444969343_6_0" index="0" disallow="tram rail_urban rail rail_electric rail_fast ship" speed="22.22" length="11.52" shape="2085.27,1600.57 2086.61,1589.12"/>
    </edge>
    <edge id=":1444969343_7" function="internal">
        <lane id=":1444969343_7_0" index="0" disallow="tram rail_urban rail rail_electric rail_fast ship" speed="7.20" length="11.84" shape="2085.27,1600.57 2085.05,1597.97 2083.62,1596.03 2080.99,1594.74 2077.15,1594.10"/>
    </edge>
    <edge id=":1444969343_8" function="internal">
        <lane id=":1444969343_8_0" index="0" disallow="tram rail_urban rail rail_electric rail_fast ship" speed="3.65" length="4.67" shape="2085.27,1600.57 2084.63,1599.27 2083.89,1598.77 2083.05,1599.06 2082.10,1600.15"/>
    </edge>
    <edge id=":1444969346_0" function="internal">
        <lane id=":1444969346_0_0" index="0" disallow="tram rail_urban rail rail_electric rail_fast ship" speed="6.47" length="9.03" shape="2064.41,1746.72 2063.74,1749.11 2062.47,1750.69 2060.59,1751.48 2058.11,1751.47"/>
    </edge>
    <edge id=":1444969346_1" function="internal">
        <lane id=":1444969346_1_0" index="0" disallow="tram rail_urban rail rail_electric rail_fast ship" speed="22.22" length="14.45" shape="2064.41,1746.72 2062.31,1761.01"/>
    </edge>
    <edge id=":1444969346_2" function="internal">
        <lane id=":1444969346_2_0" index="0" disallow="tram rail_urban rail rail_electric rail_fast ship" speed="7.98" length="14.25" shape="2064.41,1746.72 2064.45,1750.63 2065.74,1753.58 2068.27,1755.55 2072.05,1756.57"/>
    </edge>
    <edge id=":1444969346_3" function="internal">
        <lane id=":1444969346_3_0" index="0" disallow="tram rail_urban rail rail_electric rail_fast ship" speed="3.65" length="4.67" shape="2064.41,1746.72 2065.05,1748.01 2065.79,1748.51 2066.63,1748.22 2067.58,1747.14"/>
    </edge>
    <edge id=":1444969346_4" function="internal">
        <lane id=":1444969346_4_0" index="0" disallow="tram rail_urban rail rail_electric rail_fast ship" speed="6.48" length="9.04" shape="2072.43,1753.39 2070.03,1752.75 2068.43,1751.49 2067.61,1749.62 2067.58,1747.14"/>
    </edge>
    <edge id=":1444969346_5" function="internal">
        <lane id=":1444969346_5_0" index="0" disallow="tram rail_urban rail rail_electric rail_fast ship" speed="27.78" length="14.44" shape="2072.43,1753.39 2058.11,1751.47"/>
    </edge>
    <edge id=":1444969346_6" function="internal">
        <lane id=":1444969346_6_0" index="0" disallow="tram rail_urban rail rail_electric rail_fast ship" speed="8.16" length="5.83" shape="2072.43,1753.39 2068.53,1753.47 2066.76,1754.24"/>
    </edge>
    <edge id=":1444969346_7" function="internal">
        <lane id=":1444969346_7_0" index="0" disallow="tram rail_urban rail rail_electric rail_fast ship" speed="3.65" length="2.34" shape="2072.43,1753.39 2071.14,1754.04 2070.65,1754.79"/>
    </edge>
    <edge id=":1444969346_16" function="internal">
        <lane id=":1444969346_16_0" index="0" disallow="tram rail_urban rail rail_electric rail_fast ship" speed="8.16" length="8.49" shape="2066.76,1754.24 2065.54,1754.77 2063.47,1757.28 2062.31,1761.01"/>
    </edge>
    <edge id=":1444969346_17" function="internal">
        <lane id=":1444969346_17_0" index="0" disallow="tram rail_urban rail rail_electric rail_fast ship" speed="3.65" length="2.34" shape="2070.65,1754.79 2070.95,1755.63 2072.05,1756.57"/>
    </edge>
    <edge id=":1444969346_8" function="internal">
        <lane id=":1444969346_8_0" index="0" disallow="tram rail_urban rail rail_electric rail_fast ship" speed="6.69" length="9.31" shape="2065.47,1761.52 2066.22,1759.10 2067.57,1757.47 2069.51,1756.62 2072.05,1756.57"/>
    </edge>
    <edge id=":1444969346_9" function="internal">
        <lane id=":1444969346_9_0" index="0" disallow="tram rail_urban rail rail_electric rail_fast ship" speed="22.22" length="14.54" shape="2065.47,1761.52 2067.58,1747.14"/>
    </edge>
    <edge id=":1444969346_10" function="internal">
        <lane id=":1444969346_10_0" index="0" disallow="tram rail_urban rail rail_electric rail_fast ship" speed="7.98" length="14.25" shape="2065.47,1761.52 2065.54,1757.61 2064.34,1754.63 2061.86,1752.59 2058.11,1751.47"/>
    </edge>
    <edge id=":1444969346_11" function="internal">
        <lane id=":1444969346_11_0" index="0" disallow="tram rail_urban rail rail_electric rail_fast ship" speed="3.65" length="4.67" shape="2065.47,1761.52 2064.87,1760.21 2064.14,1759.69 2063.29,1759.95 2062.31,1761.01"/>
    </edge>
    <edge id=":1444969346_12" function="internal">
        <lane id=":1444969346_12_0" index="0" disallow="tram rail_urban rail rail_electric rail_fast ship" speed="6.48" length="9.04" shape="2057.64,1754.64 2060.02,1755.34 2061.59,1756.64 2062.35,1758.53 2062.31,1761.01"/>
    </edge>
    <edge id=":1444969346_13" function="internal">
        <lane id=":1444969346_13_0" index="0" disallow="tram rail_urban rail rail_electric rail_fast ship" speed="27.78" length="14.53" shape="2057.64,1754.64 2072.05,1756.57"/>
    </edge>
    <edge id=":1444969346_14" function="internal">
        <lane id=":1444969346_14_0" index="0" disallow="tram rail_urban rail rail_electric rail_fast ship" speed="7.97" length="6.08" shape="2057.64,1754.64 2061.56,1754.66 2063.56,1753.82"/>
    </edge>
    <edge id=":1444969346_15" function="internal">
        <lane id=":1444969346_15_0" index="0" disallow="tram rail_urban rail rail_electric rail_fast ship" speed="3.65" length="2.34" shape="2057.64,1754.64 2058.95,1754.02 2059.46,1753.29"/>
    </edge>
    <edge id=":1444969346_18" function="internal">
        <lane id=":1444969346_18_0" index="0" disallow="tram rail_urban rail rail_electric rail_fast ship" speed="7.97" length="8.17" shape="2063.56,1753.82 2064.52,1753.41 2066.53,1750.91 2067.58,1747.14"/>
    </edge>
    <edge id=":1444969346_19" function="internal">
        <lane id=":1444969346_19_0" index="0" disallow="tram rail_urban rail rail_electric rail_fast ship" speed="3.65" length="2.34" shape="2059.46,1753.29 2059.18,1752.44 2058.11,1751.47"/>
    </edge>
    <edge id=":1444969348_0" function="internal">
        <lane id=":1444969348_0_0" index="0" disallow="tram rail_urban rail rail_electric rail_fast ship" speed="6.56" length="9.19" shape="2021.17,2051.14 2020.53,2053.61 2019.28,2055.29 2017.42,2056.17 2014.95,2056.26"/>
    </edge>
    <edge id=":1444969348_1" function="internal">
        <lane id=":1444969348_1_0" index="0" disallow="tram rail_urban rail rail_electric rail_fast ship" speed="7.90" length="14.41" shape="2021.17,2051.14 2021.28,2055.12 2022.65,2058.03 2025.29,2059.90 2029.19,2060.70"/>
    </edge>
    <edge id=":1444969348_2" function="internal">
        <lane id=":1444969348_2_0" index="0" disallow="tram rail_urban rail rail_electric rail_fast ship" speed="3.65" length="4.67" shape="2021.17,2051.14 2021.83,2052.42 2022.58,2052.91 2023.42,2052.61 2024.35,2051.51"/>
    </edge>
    <edge id=":1444969348_3" function="internal">
        <lane id=":1444969348_3_0" index="0" disallow="tram rail_urban rail rail_electric rail_fast ship" speed="6.39" length="9.04" shape="2029.38,2057.50 2026.93,2057.00 2025.28,2055.83 2024.42,2054.00 2024.35,2051.51"/>
    </edge>
    <edge id=":1444969348_4" function="internal">
        <lane id=":1444969348_4_0" index="0" disallow="tram rail_urban rail rail_electric rail_fast ship" speed="22.22" length="14.48" shape="2029.38,2057.50 2014.95,2056.26"/>
    </edge>
    <edge id=":1444969348_5" function="internal">
        <lane id=":1444969348_5_0" index="0" disallow="tram rail_urban rail rail_electric rail_fast ship" speed="3.65" length="2.34" shape="2029.38,2057.50 2028.13,2058.23 2027.68,2059.00"/>
    </edge>
    <edge id=":1444969348_9" function="internal">
        <lane id=":1444969348_9_0" index="0" disallow="tram rail_urban rail rail_electric rail_fast ship" speed="3.65" length="2.34" shape="2027.68,2059.00 2028.04,2059.83 2029.19,2060.70"/>
    </edge>
    <edge id=":1444969348_6" function="internal">
        <lane id=":1444969348_6_0" index="0" disallow="tram rail_urban rail rail_electric rail_fast ship" speed="22.22" length="14.65" shape="2014.59,2059.44 2029.19,2060.70"/>
    </edge>
    <edge id=":1444969348_7" function="internal">
        <lane id=":1444969348_7_0" index="0" disallow="tram rail_urban rail rail_electric rail_fast ship" speed="8.05" length="6.17" shape="2014.59,2059.44 2018.47,2059.31 2020.54,2058.35"/>
    </edge>
    <edge id=":1444969348_8" function="internal">
        <lane id=":1444969348_8_0" index="0" disallow="tram rail_urban rail rail_electric rail_fast ship" speed="3.65" length="2.34" shape="2014.59,2059.44 2015.87,2058.78 2016.36,2058.03"/>
    </edge>
    <edge id=":1444969348_10" function="internal">
        <lane id=":1444969348_10_0" index="0" disallow="tram rail_urban rail rail_electric rail_fast ship" speed="8.05" length="8.17" shape="2020.54,2058.35 2021.39,2057.95 2023.35,2055.35 2024.35,2051.51"/>
    </edge>
    <edge id=":1444969348_11" function="internal">
        <lane id=":1444969348_11_0" index="0" disallow="tram rail_urban rail rail_electric rail_fast ship" speed="3.65" length="2.34" shape="2016.36,2058.03 2016.05,2057.19 2014.95,2056.26"/>
    </edge>
    <edge id=":1444969349_0" function="internal">
        <lane id=":1444969349_0_0" index="0" disallow="tram rail_urban rail rail_electric rail_fast ship" speed="6.60" length="9.14" shape="2123.25,2057.50 2122.68,2059.94 2121.48,2061.63 2119.64,2062.58 2117.16,2062.78"/>
    </edge>
    <edge id=":1444969349_1" function="internal">
        <lane id=":1444969349_1_0" index="0" disallow="tram rail_urban rail rail_electric rail_fast ship" speed="13.89" length="14.58" shape="2123.25,2057.50 2122.26,2072.05"/>
    </edge>
    <edge id=":1444969349_2" function="internal">
        <lane id=":1444969349_2_0" index="0" disallow="tram rail_urban rail rail_electric rail_fast ship" speed="8.03" length="14.29" shape="2123.25,2057.50 2123.47,2061.38 2124.90,2064.27 2127.53,2066.16 2131.37,2067.06"/>
    </edge>
    <edge id=":1444969349_3" function="internal">
        <lane id=":1444969349_3_0" index="0" disallow="tram rail_urban rail rail_electric rail_fast ship" speed="3.65" length="4.67" shape="2123.25,2057.50 2123.94,2058.77 2124.70,2059.24 2125.54,2058.91 2126.44,2057.78"/>
    </edge>
    <edge id=":1444969349_4" function="internal">
        <lane id=":1444969349_4_0" index="0" disallow="tram rail_urban rail rail_electric rail_fast ship" speed="6.55" length="9.14" shape="2131.66,2063.87 2129.19,2063.30 2127.50,2062.09 2126.58,2060.25 2126.44,2057.78"/>
    </edge>
    <edge id=":1444969349_5" function="internal">
        <lane id=":1444969349_5_0" index="0" disallow="tram rail_urban rail rail_electric rail_fast ship" speed="22.22" length="14.54" shape="2131.66,2063.87 2117.16,2062.78"/>
    </edge>
    <edge id=":1444969349_6" function="internal">
        <lane id=":1444969349_6_0" index="0" disallow="tram rail_urban rail rail_electric rail_fast ship" speed="7.93" length="6.09" shape="2131.66,2063.87 2127.71,2064.08 2125.80,2065.03"/>
    </edge>
    <edge id=":1444969349_7" function="internal">
        <lane id=":1444969349_7_0" index="0" disallow="tram rail_urban rail rail_electric rail_fast ship" speed="3.65" length="2.34" shape="2131.66,2063.87 2130.39,2064.56 2129.92,2065.32"/>
    </edge>
    <edge id=":1444969349_16" function="internal">
        <lane id=":1444969349_16_0" index="0" disallow="tram rail_urban rail rail_electric rail_fast ship" speed="7.93" length="8.25" shape="2125.80,2065.03 2124.83,2065.51 2123.01,2068.17 2122.26,2072.05"/>
    </edge>
    <edge id=":1444969349_17" function="internal">
        <lane id=":1444969349_17_0" index="0" disallow="tram rail_urban rail rail_electric rail_fast ship" speed="3.65" length="2.34" shape="2129.92,2065.32 2130.25,2066.15 2131.37,2067.06"/>
    </edge>
    <edge id=":1444969349_8" function="internal">
        <lane id=":1444969349_8_0" index="0" disallow="tram rail_urban rail rail_electric rail_fast ship" speed="6.42" length="9.04" shape="2125.45,2072.21 2125.93,2069.77 2127.07,2068.09 2128.89,2067.19 2131.37,2067.06"/>
    </edge>
    <edge id=":1444969349_9" function="internal">
        <lane id=":1444969349_9_0" index="0" disallow="tram rail_urban rail rail_electric rail_fast ship" speed="13.89" length="14.46" shape="2125.45,2072.21 2126.44,2057.78"/>
    </edge>
    <edge id=":1444969349_10" function="internal">
        <lane id=":1444969349_10_0" index="0" disallow="tram rail_urban rail rail_electric rail_fast ship" speed="8.06" length="14.28" shape="2125.45,2072.21 2125.10,2068.28 2123.60,2065.40 2120.95,2063.57 2117.16,2062.78"/>
    </edge>
    <edge id=":1444969349_11" function="internal">
        <lane id=":1444969349_11_0" index="0" disallow="tram rail_urban rail rail_electric rail_fast ship" speed="3.65" length="4.67" shape="2125.45,2072.21 2124.71,2070.97 2123.93,2070.53 2123.11,2070.89 2122.26,2072.05"/>
    </edge>
    <edge id=":1444969349_12" function="internal">
        <lane id=":1444969349_12_0" index="0" disallow="tram rail_urban rail rail_electric rail_fast ship" speed="6.57" length="9.16" shape="2116.97,2065.98 2119.39,2066.48 2121.08,2067.66 2122.03,2069.52 2122.26,2072.05"/>
    </edge>
    <edge id=":1444969349_13" function="internal">
        <lane id=":1444969349_13_0" index="0" disallow="tram rail_urban rail rail_electric rail_fast ship" speed="22.22" length="14.45" shape="2116.97,2065.98 2131.37,2067.06"/>
    </edge>
    <edge id=":1444969349_14" function="internal">
        <lane id=":1444969349_14_0" index="0" disallow="tram rail_urban rail rail_electric rail_fast ship" speed="8.08" length="5.78" shape="2116.97,2065.98 2120.82,2065.66 2122.52,2064.79"/>
    </edge>
    <edge id=":1444969349_15" function="internal">
        <lane id=":1444969349_15_0" index="0" disallow="tram rail_urban rail rail_electric rail_fast ship" speed="3.65" length="2.34" shape="2116.97,2065.98 2118.21,2065.25 2118.66,2064.48"/>
    </edge>
    <edge id=":1444969349_18" function="internal">
        <lane id=":1444969349_18_0" index="0" disallow="tram rail_urban rail rail_electric rail_fast ship" speed="8.08" length="8.42" shape="2122.52,2064.79 2123.69,2064.19 2125.56,2061.56 2126.44,2057.78"/>
    </edge>
    <edge id=":1444969349_19" function="internal">
        <lane id=":1444969349_19_0" index="0" disallow="tram rail_urban rail rail_electric rail_fast ship" speed="3.65" length="2.34" shape="2118.66,2064.48 2118.31,2063.65 2117.16,2062.78"/>
    </edge>
    <edge id=":1444969351_0" function="internal">
        <lane id=":1444969351_0_0" index="0" disallow="tram rail_urban rail rail_electric rail_fast ship" speed="7.60" length="11.08" shape="3137.04,2196.49 3134.23,2195.98 3132.09,2194.65 3130.62,2192.49 3129.82,2189.51"/>
    </edge>
    <edge id=":1444969351_1" function="internal">
        <lane id=":1444969351_1_0" index="0" disallow="tram rail_urban rail rail_electric rail_fast ship" speed="22.22" length="15.68" shape="3137.04,2196.49 3133.19,2196.32 3129.22,2196.02 3125.25,2195.64 3121.42,2195.17"/>
    </edge>
    <edge id=":1444969351_2" function="internal">